640

N 0.71000000 13.15176100 10.00000000
C 0.71000000 12.22863200 12.22863200
C 0.71000000 10.00000000 13.15176100
C 0.71000000 7.77136800 12.22863200
C 0.71000000 6.84823900 10.00000000
C 0.71000000 7.77136800 7.77136800
C 0.71000000 10.00000000 6.84823900
C 0.71000000 12.22863200 7.77136800
C 1.42000000 12.91184700 8.79387300
C 1.42000000 12.91184700 11.20612700
C 1.42000000 11.20612700 12.91184700
C 1.42000000 8.79387300 12.91184700
C 1.42000000 7.08815300 11.20612700
C 1.42000000 7.08815300 8.79387300
C 1.42000000 8.79387300 7.08815300
C 1.42000000 11.20612700 7.08815300
C 2.84000000 12.91184700 8.79387300
C 2.84000000 12.91184700 11.20612700
C 2.84000000 11.20612700 12.91184700
C 2.84000000 8.79387300 12.91184700
C 2.84000000 7.08815300 11.20612700
C 2.84000000 7.08815300 8.79387300
C 2.84000000 8.79387300 7.08815300
C 2.84000000 11.20612700 7.08815300
C 3.55000000 13.15176100 10.00000000
C 3.55000000 12.22863200 12.22863200
C 3.55000000 10.00000000 13.15176100
C 3.55000000 7.77136800 12.22863200
N 3.55000000 6.84823900 10.00000000
C 3.55000000 7.77136800 7.77136800
C 3.55000000 10.00000000 6.84823900
C 3.55000000 12.22863200 7.77136800
N 4.97000000 13.15176100 10.00000000
C 4.97000000 12.22863200 12.22863200
C 4.97000000 10.00000000 13.15176100
C 4.97000000 7.77136800 12.22863200
C 4.97000000 6.84823900 10.00000000
C 4.97000000 7.77136800 7.77136800
C 4.97000000 10.00000000 6.84823900
C 4.97000000 12.22863200 7.77136800
C 5.68000000 12.91184700 8.79387300
C 5.68000000 12.91184700 11.20612700
C 5.68000000 11.20612700 12.91184700
C 5.68000000 8.79387300 12.91184700
C 5.68000000 7.08815300 11.20612700
C 5.68000000 7.08815300 8.79387300
C 5.68000000 8.79387300 7.08815300
C 5.68000000 11.20612700 7.08815300
C 7.10000000 12.91184700 8.79387300
C 7.10000000 12.91184700 11.20612700
C 7.10000000 11.20612700 12.91184700
C 7.10000000 8.79387300 12.91184700
C 7.10000000 7.08815300 11.20612700
C 7.10000000 7.08815300 8.79387300
C 7.10000000 8.79387300 7.08815300
C 7.10000000 11.20612700 7.08815300
C 7.81000000 13.15176100 10.00000000
C 7.81000000 12.22863200 12.22863200
C 7.81000000 10.00000000 13.15176100
C 7.81000000 7.77136800 12.22863200
N 7.81000000 6.84823900 10.00000000
C 7.81000000 7.77136800 7.77136800
C 7.81000000 10.00000000 6.84823900
C 7.81000000 12.22863200 7.77136800
N 9.23000000 13.15176100 10.00000000
C 9.23000000 12.22863200 12.22863200
C 9.23000000 10.00000000 13.15176100
C 9.23000000 7.77136800 12.22863200
C 9.23000000 6.84823900 10.00000000
C 9.23000000 7.77136800 7.77136800
C 9.23000000 10.00000000 6.84823900
C 9.23000000 12.22863200 7.77136800
C 9.94000000 12.91184700 8.79387300
C 9.94000000 12.91184700 11.20612700
C 9.94000000 11.20612700 12.91184700
C 9.94000000 8.79387300 12.91184700
C 9.94000000 7.08815300 11.20612700
C 9.94000000 7.08815300 8.79387300
C 9.94000000 8.79387300 7.08815300
C 9.94000000 11.20612700 7.08815300
C 11.36000000 12.91184700 8.79387300
C 11.36000000 12.91184700 11.20612700
C 11.36000000 11.20612700 12.91184700
C 11.36000000 8.79387300 12.91184700
C 11.36000000 7.08815300 11.20612700
C 11.36000000 7.08815300 8.79387300
C 11.36000000 8.79387300 7.08815300
C 11.36000000 11.20612700 7.08815300
C 12.07000000 13.15176100 10.00000000
C 12.07000000 12.22863200 12.22863200
C 12.07000000 10.00000000 13.15176100
C 12.07000000 7.77136800 12.22863200
N 12.07000000 6.84823900 10.00000000
C 12.07000000 7.77136800 7.77136800
C 12.07000000 10.00000000 6.84823900
C 12.07000000 12.22863200 7.77136800
N 13.49000000 13.15176100 10.00000000
C 13.49000000 12.22863200 12.22863200
C 13.49000000 10.00000000 13.15176100
C 13.49000000 7.77136800 12.22863200
C 13.49000000 6.84823900 10.00000000
C 13.49000000 7.77136800 7.77136800
C 13.49000000 10.00000000 6.84823900
C 13.49000000 12.22863200 7.77136800
C 14.20000000 12.91184700 8.79387300
C 14.20000000 12.91184700 11.20612700
C 14.20000000 11.20612700 12.91184700
C 14.20000000 8.79387300 12.91184700
C 14.20000000 7.08815300 11.20612700
C 14.20000000 7.08815300 8.79387300
C 14.20000000 8.79387300 7.08815300
C 14.20000000 11.20612700 7.08815300
C 15.62000000 12.91184700 8.79387300
C 15.62000000 12.91184700 11.20612700
C 15.62000000 11.20612700 12.91184700
C 15.62000000 8.79387300 12.91184700
C 15.62000000 7.08815300 11.20612700
C 15.62000000 7.08815300 8.79387300
C 15.62000000 8.79387300 7.08815300
C 15.62000000 11.20612700 7.08815300
C 16.33000000 13.15176100 10.00000000
C 16.33000000 12.22863200 12.22863200
C 16.33000000 10.00000000 13.15176100
C 16.33000000 7.77136800 12.22863200
N 16.33000000 6.84823900 10.00000000
C 16.33000000 7.77136800 7.77136800
C 16.33000000 10.00000000 6.84823900
C 16.33000000 12.22863200 7.77136800
N 17.75000000 13.15176100 10.00000000
C 17.75000000 12.22863200 12.22863200
C 17.75000000 10.00000000 13.15176100
C 17.75000000 7.77136800 12.22863200
C 17.75000000 6.84823900 10.00000000
C 17.75000000 7.77136800 7.77136800
C 17.75000000 10.00000000 6.84823900
C 17.75000000 12.22863200 7.77136800
C 18.46000000 12.91184700 8.79387300
C 18.46000000 12.91184700 11.20612700
C 18.46000000 11.20612700 12.91184700
C 18.46000000 8.79387300 12.91184700
C 18.46000000 7.08815300 11.20612700
C 18.46000000 7.08815300 8.79387300
C 18.46000000 8.79387300 7.08815300
C 18.46000000 11.20612700 7.08815300
C 19.88000000 12.91184700 8.79387300
C 19.88000000 12.91184700 11.20612700
C 19.88000000 11.20612700 12.91184700
C 19.88000000 8.79387300 12.91184700
C 19.88000000 7.08815300 11.20612700
C 19.88000000 7.08815300 8.79387300
C 19.88000000 8.79387300 7.08815300
C 19.88000000 11.20612700 7.08815300
C 20.59000000 13.15176100 10.00000000
C 20.59000000 12.22863200 12.22863200
C 20.59000000 10.00000000 13.15176100
C 20.59000000 7.77136800 12.22863200
N 20.59000000 6.84823900 10.00000000
C 20.59000000 7.77136800 7.77136800
C 20.59000000 10.00000000 6.84823900
C 20.59000000 12.22863200 7.77136800
N 22.01000000 13.15176100 10.00000000
C 22.01000000 12.22863200 12.22863200
C 22.01000000 10.00000000 13.15176100
C 22.01000000 7.77136800 12.22863200
C 22.01000000 6.84823900 10.00000000
C 22.01000000 7.77136800 7.77136800
C 22.01000000 10.00000000 6.84823900
C 22.01000000 12.22863200 7.77136800
C 22.72000000 12.91184700 8.79387300
C 22.72000000 12.91184700 11.20612700
C 22.72000000 11.20612700 12.91184700
C 22.72000000 8.79387300 12.91184700
C 22.72000000 7.08815300 11.20612700
C 22.72000000 7.08815300 8.79387300
C 22.72000000 8.79387300 7.08815300
C 22.72000000 11.20612700 7.08815300
C 24.14000000 12.91184700 8.79387300
C 24.14000000 12.91184700 11.20612700
C 24.14000000 11.20612700 12.91184700
C 24.14000000 8.79387300 12.91184700
C 24.14000000 7.08815300 11.20612700
C 24.14000000 7.08815300 8.79387300
C 24.14000000 8.79387300 7.08815300
C 24.14000000 11.20612700 7.08815300
C 24.85000000 13.15176100 10.00000000
C 24.85000000 12.22863200 12.22863200
C 24.85000000 10.00000000 13.15176100
C 24.85000000 7.77136800 12.22863200
N 24.85000000 6.84823900 10.00000000
C 24.85000000 7.77136800 7.77136800
C 24.85000000 10.00000000 6.84823900
C 24.85000000 12.22863200 7.77136800
C 26.27000000 13.15176100 10.00000000
C 26.27000000 12.22863200 12.22863200
C 26.27000000 10.00000000 13.15176100
C 26.27000000 7.77136800 12.22863200
C 26.27000000 6.84823900 10.00000000
C 26.27000000 7.77136800 7.77136800
C 26.27000000 10.00000000 6.84823900
C 26.27000000 12.22863200 7.77136800
C 26.98000000 12.91184700 8.79387300
C 26.98000000 12.91184700 11.20612700
C 26.98000000 11.20612700 12.91184700
C 26.98000000 8.79387300 12.91184700
C 26.98000000 7.08815300 11.20612700
C 26.98000000 7.08815300 8.79387300
C 26.98000000 8.79387300 7.08815300
C 26.98000000 11.20612700 7.08815300
C 28.40000000 12.91184700 8.79387300
C 28.40000000 12.91184700 11.20612700
C 28.40000000 11.20612700 12.91184700
C 28.40000000 8.79387300 12.91184700
C 28.40000000 7.08815300 11.20612700
C 28.40000000 7.08815300 8.79387300
C 28.40000000 8.79387300 7.08815300
C 28.40000000 11.20612700 7.08815300
C 29.11000000 13.15176100 10.00000000
C 29.11000000 12.22863200 12.22863200
C 29.11000000 10.00000000 13.15176100
C 29.11000000 7.77136800 12.22863200
C 29.11000000 6.84823900 10.00000000
C 29.11000000 7.77136800 7.77136800
C 29.11000000 10.00000000 6.84823900
C 29.11000000 12.22863200 7.77136800
C 30.53000000 13.15176100 10.00000000
C 30.53000000 12.22863200 12.22863200
C 30.53000000 10.00000000 13.15176100
C 30.53000000 7.77136800 12.22863200
C 30.53000000 6.84823900 10.00000000
C 30.53000000 7.77136800 7.77136800
C 30.53000000 10.00000000 6.84823900
C 30.53000000 12.22863200 7.77136800
C 31.24000000 12.91184700 8.79387300
C 31.24000000 12.91184700 11.20612700
C 31.24000000 11.20612700 12.91184700
C 31.24000000 8.79387300 12.91184700
C 31.24000000 7.08815300 11.20612700
C 31.24000000 7.08815300 8.79387300
C 31.24000000 8.79387300 7.08815300
C 31.24000000 11.20612700 7.08815300
C 32.66000000 12.91184700 8.79387300
C 32.66000000 12.91184700 11.20612700
C 32.66000000 11.20612700 12.91184700
C 32.66000000 8.79387300 12.91184700
C 32.66000000 7.08815300 11.20612700
C 32.66000000 7.08815300 8.79387300
C 32.66000000 8.79387300 7.08815300
C 32.66000000 11.20612700 7.08815300
C 33.37000000 13.15176100 10.00000000
C 33.37000000 12.22863200 12.22863200
C 33.37000000 10.00000000 13.15176100
C 33.37000000 7.77136800 12.22863200
C 33.37000000 6.84823900 10.00000000
C 33.37000000 7.77136800 7.77136800
C 33.37000000 10.00000000 6.84823900
C 33.37000000 12.22863200 7.77136800
C 34.79000000 13.15176100 10.00000000
C 34.79000000 12.22863200 12.22863200
C 34.79000000 10.00000000 13.15176100
C 34.79000000 7.77136800 12.22863200
C 34.79000000 6.84823900 10.00000000
C 34.79000000 7.77136800 7.77136800
C 34.79000000 10.00000000 6.84823900
C 34.79000000 12.22863200 7.77136800
C 35.50000000 12.91184700 8.79387300
C 35.50000000 12.91184700 11.20612700
C 35.50000000 11.20612700 12.91184700
C 35.50000000 8.79387300 12.91184700
C 35.50000000 7.08815300 11.20612700
C 35.50000000 7.08815300 8.79387300
C 35.50000000 8.79387300 7.08815300
C 35.50000000 11.20612700 7.08815300
C 36.92000000 12.91184700 8.79387300
C 36.92000000 12.91184700 11.20612700
C 36.92000000 11.20612700 12.91184700
C 36.92000000 8.79387300 12.91184700
C 36.92000000 7.08815300 11.20612700
C 36.92000000 7.08815300 8.79387300
C 36.92000000 8.79387300 7.08815300
C 36.92000000 11.20612700 7.08815300
C 37.63000000 13.15176100 10.00000000
C 37.63000000 12.22863200 12.22863200
C 37.63000000 10.00000000 13.15176100
C 37.63000000 7.77136800 12.22863200
C 37.63000000 6.84823900 10.00000000
C 37.63000000 7.77136800 7.77136800
C 37.63000000 10.00000000 6.84823900
C 37.63000000 12.22863200 7.77136800
C 39.05000000 13.15176100 10.00000000
C 39.05000000 12.22863200 12.22863200
C 39.05000000 10.00000000 13.15176100
C 39.05000000 7.77136800 12.22863200
C 39.05000000 6.84823900 10.00000000
C 39.05000000 7.77136800 7.77136800
C 39.05000000 10.00000000 6.84823900
C 39.05000000 12.22863200 7.77136800
C 39.76000000 12.91184700 8.79387300
C 39.76000000 12.91184700 11.20612700
C 39.76000000 11.20612700 12.91184700
C 39.76000000 8.79387300 12.91184700
C 39.76000000 7.08815300 11.20612700
C 39.76000000 7.08815300 8.79387300
C 39.76000000 8.79387300 7.08815300
C 39.76000000 11.20612700 7.08815300
C 41.18000000 12.91184700 8.79387300
C 41.18000000 12.91184700 11.20612700
C 41.18000000 11.20612700 12.91184700
C 41.18000000 8.79387300 12.91184700
C 41.18000000 7.08815300 11.20612700
C 41.18000000 7.08815300 8.79387300
C 41.18000000 8.79387300 7.08815300
C 41.18000000 11.20612700 7.08815300
C 41.89000000 13.15176100 10.00000000
C 41.89000000 12.22863200 12.22863200
C 41.89000000 10.00000000 13.15176100
C 41.89000000 7.77136800 12.22863200
C 41.89000000 6.84823900 10.00000000
C 41.89000000 7.77136800 7.77136800
C 41.89000000 10.00000000 6.84823900
C 41.89000000 12.22863200 7.77136800
C 43.31000000 13.15176100 10.00000000
C 43.31000000 12.22863200 12.22863200
C 43.31000000 10.00000000 13.15176100
C 43.31000000 7.77136800 12.22863200
C 43.31000000 6.84823900 10.00000000
C 43.31000000 7.77136800 7.77136800
C 43.31000000 10.00000000 6.84823900
C 43.31000000 12.22863200 7.77136800
C 44.02000000 12.91184700 8.79387300
C 44.02000000 12.91184700 11.20612700
C 44.02000000 11.20612700 12.91184700
C 44.02000000 8.79387300 12.91184700
C 44.02000000 7.08815300 11.20612700
C 44.02000000 7.08815300 8.79387300
C 44.02000000 8.79387300 7.08815300
C 44.02000000 11.20612700 7.08815300
C 45.44000000 12.91184700 8.79387300
C 45.44000000 12.91184700 11.20612700
C 45.44000000 11.20612700 12.91184700
C 45.44000000 8.79387300 12.91184700
C 45.44000000 7.08815300 11.20612700
C 45.44000000 7.08815300 8.79387300
C 45.44000000 8.79387300 7.08815300
C 45.44000000 11.20612700 7.08815300
C 46.15000000 13.15176100 10.00000000
C 46.15000000 12.22863200 12.22863200
C 46.15000000 10.00000000 13.15176100
C 46.15000000 7.77136800 12.22863200
C 46.15000000 6.84823900 10.00000000
C 46.15000000 7.77136800 7.77136800
C 46.15000000 10.00000000 6.84823900
C 46.15000000 12.22863200 7.77136800
C 47.57000000 13.15176100 10.00000000
C 47.57000000 12.22863200 12.22863200
C 47.57000000 10.00000000 13.15176100
C 47.57000000 7.77136800 12.22863200
C 47.57000000 6.84823900 10.00000000
C 47.57000000 7.77136800 7.77136800
C 47.57000000 10.00000000 6.84823900
C 47.57000000 12.22863200 7.77136800
C 48.28000000 12.91184700 8.79387300
C 48.28000000 12.91184700 11.20612700
C 48.28000000 11.20612700 12.91184700
C 48.28000000 8.79387300 12.91184700
C 48.28000000 7.08815300 11.20612700
C 48.28000000 7.08815300 8.79387300
C 48.28000000 8.79387300 7.08815300
C 48.28000000 11.20612700 7.08815300
C 49.70000000 12.91184700 8.79387300
C 49.70000000 12.91184700 11.20612700
C 49.70000000 11.20612700 12.91184700
C 49.70000000 8.79387300 12.91184700
C 49.70000000 7.08815300 11.20612700
C 49.70000000 7.08815300 8.79387300
C 49.70000000 8.79387300 7.08815300
C 49.70000000 11.20612700 7.08815300
C 50.41000000 13.15176100 10.00000000
C 50.41000000 12.22863200 12.22863200
C 50.41000000 10.00000000 13.15176100
C 50.41000000 7.77136800 12.22863200
C 50.41000000 6.84823900 10.00000000
C 50.41000000 7.77136800 7.77136800
C 50.41000000 10.00000000 6.84823900
C 50.41000000 12.22863200 7.77136800
C 51.83000000 13.15176100 10.00000000
C 51.83000000 12.22863200 12.22863200
C 51.83000000 10.00000000 13.15176100
C 51.83000000 7.77136800 12.22863200
C 51.83000000 6.84823900 10.00000000
C 51.83000000 7.77136800 7.77136800
C 51.83000000 10.00000000 6.84823900
C 51.83000000 12.22863200 7.77136800
C 52.54000000 12.91184700 8.79387300
C 52.54000000 12.91184700 11.20612700
C 52.54000000 11.20612700 12.91184700
C 52.54000000 8.79387300 12.91184700
C 52.54000000 7.08815300 11.20612700
C 52.54000000 7.08815300 8.79387300
C 52.54000000 8.79387300 7.08815300
C 52.54000000 11.20612700 7.08815300
C 53.96000000 12.91184700 8.79387300
C 53.96000000 12.91184700 11.20612700
C 53.96000000 11.20612700 12.91184700
C 53.96000000 8.79387300 12.91184700
C 53.96000000 7.08815300 11.20612700
C 53.96000000 7.08815300 8.79387300
C 53.96000000 8.79387300 7.08815300
C 53.96000000 11.20612700 7.08815300
C 54.67000000 13.15176100 10.00000000
C 54.67000000 12.22863200 12.22863200
C 54.67000000 10.00000000 13.15176100
C 54.67000000 7.77136800 12.22863200
C 54.67000000 6.84823900 10.00000000
C 54.67000000 7.77136800 7.77136800
C 54.67000000 10.00000000 6.84823900
C 54.67000000 12.22863200 7.77136800
C 56.09000000 13.15176100 10.00000000
C 56.09000000 12.22863200 12.22863200
C 56.09000000 10.00000000 13.15176100
C 56.09000000 7.77136800 12.22863200
C 56.09000000 6.84823900 10.00000000
C 56.09000000 7.77136800 7.77136800
C 56.09000000 10.00000000 6.84823900
C 56.09000000 12.22863200 7.77136800
C 56.80000000 12.91184700 8.79387300
C 56.80000000 12.91184700 11.20612700
C 56.80000000 11.20612700 12.91184700
C 56.80000000 8.79387300 12.91184700
C 56.80000000 7.08815300 11.20612700
C 56.80000000 7.08815300 8.79387300
C 56.80000000 8.79387300 7.08815300
C 56.80000000 11.20612700 7.08815300
C 58.22000000 12.91184700 8.79387300
C 58.22000000 12.91184700 11.20612700
C 58.22000000 11.20612700 12.91184700
C 58.22000000 8.79387300 12.91184700
C 58.22000000 7.08815300 11.20612700
C 58.22000000 7.08815300 8.79387300
C 58.22000000 8.79387300 7.08815300
C 58.22000000 11.20612700 7.08815300
C 58.93000000 13.15176100 10.00000000
C 58.93000000 12.22863200 12.22863200
C 58.93000000 10.00000000 13.15176100
C 58.93000000 7.77136800 12.22863200
C 58.93000000 6.84823900 10.00000000
C 58.93000000 7.77136800 7.77136800
C 58.93000000 10.00000000 6.84823900
C 58.93000000 12.22863200 7.77136800
N 60.35000000 13.15176100 10.00000000
C 60.35000000 12.22863200 12.22863200
C 60.35000000 10.00000000 13.15176100
C 60.35000000 7.77136800 12.22863200
C 60.35000000 6.84823900 10.00000000
C 60.35000000 7.77136800 7.77136800
C 60.35000000 10.00000000 6.84823900
C 60.35000000 12.22863200 7.77136800
C 61.06000000 12.91184700 8.79387300
C 61.06000000 12.91184700 11.20612700
C 61.06000000 11.20612700 12.91184700
C 61.06000000 8.79387300 12.91184700
C 61.06000000 7.08815300 11.20612700
C 61.06000000 7.08815300 8.79387300
C 61.06000000 8.79387300 7.08815300
C 61.06000000 11.20612700 7.08815300
C 62.48000000 12.91184700 8.79387300
C 62.48000000 12.91184700 11.20612700
C 62.48000000 11.20612700 12.91184700
C 62.48000000 8.79387300 12.91184700
C 62.48000000 7.08815300 11.20612700
C 62.48000000 7.08815300 8.79387300
C 62.48000000 8.79387300 7.08815300
C 62.48000000 11.20612700 7.08815300
C 63.19000000 13.15176100 10.00000000
C 63.19000000 12.22863200 12.22863200
C 63.19000000 10.00000000 13.15176100
C 63.19000000 7.77136800 12.22863200
N 63.19000000 6.84823900 10.00000000
C 63.19000000 7.77136800 7.77136800
C 63.19000000 10.00000000 6.84823900
C 63.19000000 12.22863200 7.77136800
N 64.61000000 13.15176100 10.00000000
C 64.61000000 12.22863200 12.22863200
C 64.61000000 10.00000000 13.15176100
C 64.61000000 7.77136800 12.22863200
C 64.61000000 6.84823900 10.00000000
C 64.61000000 7.77136800 7.77136800
C 64.61000000 10.00000000 6.84823900
C 64.61000000 12.22863200 7.77136800
C 65.32000000 12.91184700 8.79387300
C 65.32000000 12.91184700 11.20612700
C 65.32000000 11.20612700 12.91184700
C 65.32000000 8.79387300 12.91184700
C 65.32000000 7.08815300 11.20612700
C 65.32000000 7.08815300 8.79387300
C 65.32000000 8.79387300 7.08815300
C 65.32000000 11.20612700 7.08815300
C 66.74000000 12.91184700 8.79387300
C 66.74000000 12.91184700 11.20612700
C 66.74000000 11.20612700 12.91184700
C 66.74000000 8.79387300 12.91184700
C 66.74000000 7.08815300 11.20612700
C 66.74000000 7.08815300 8.79387300
C 66.74000000 8.79387300 7.08815300
C 66.74000000 11.20612700 7.08815300
C 67.45000000 13.15176100 10.00000000
C 67.45000000 12.22863200 12.22863200
C 67.45000000 10.00000000 13.15176100
C 67.45000000 7.77136800 12.22863200
N 67.45000000 6.84823900 10.00000000
C 67.45000000 7.77136800 7.77136800
C 67.45000000 10.00000000 6.84823900
C 67.45000000 12.22863200 7.77136800
N 68.87000000 13.15176100 10.00000000
C 68.87000000 12.22863200 12.22863200
C 68.87000000 10.00000000 13.15176100
C 68.87000000 7.77136800 12.22863200
C 68.87000000 6.84823900 10.00000000
C 68.87000000 7.77136800 7.77136800
C 68.87000000 10.00000000 6.84823900
C 68.87000000 12.22863200 7.77136800
C 69.58000000 12.91184700 8.79387300
C 69.58000000 12.91184700 11.20612700
C 69.58000000 11.20612700 12.91184700
C 69.58000000 8.79387300 12.91184700
C 69.58000000 7.08815300 11.20612700
C 69.58000000 7.08815300 8.79387300
C 69.58000000 8.79387300 7.08815300
C 69.58000000 11.20612700 7.08815300
C 71.00000000 12.91184700 8.79387300
C 71.00000000 12.91184700 11.20612700
C 71.00000000 11.20612700 12.91184700
C 71.00000000 8.79387300 12.91184700
C 71.00000000 7.08815300 11.20612700
C 71.00000000 7.08815300 8.79387300
C 71.00000000 8.79387300 7.08815300
C 71.00000000 11.20612700 7.08815300
C 71.71000000 13.15176100 10.00000000
C 71.71000000 12.22863200 12.22863200
C 71.71000000 10.00000000 13.15176100
C 71.71000000 7.77136800 12.22863200
N 71.71000000 6.84823900 10.00000000
C 71.71000000 7.77136800 7.77136800
C 71.71000000 10.00000000 6.84823900
C 71.71000000 12.22863200 7.77136800
N 73.13000000 13.15176100 10.00000000
C 73.13000000 12.22863200 12.22863200
C 73.13000000 10.00000000 13.15176100
C 73.13000000 7.77136800 12.22863200
C 73.13000000 6.84823900 10.00000000
C 73.13000000 7.77136800 7.77136800
C 73.13000000 10.00000000 6.84823900
C 73.13000000 12.22863200 7.77136800
C 73.84000000 12.91184700 8.79387300
C 73.84000000 12.91184700 11.20612700
C 73.84000000 11.20612700 12.91184700
C 73.84000000 8.79387300 12.91184700
C 73.84000000 7.08815300 11.20612700
C 73.84000000 7.08815300 8.79387300
C 73.84000000 8.79387300 7.08815300
C 73.84000000 11.20612700 7.08815300
C 75.26000000 12.91184700 8.79387300
C 75.26000000 12.91184700 11.20612700
C 75.26000000 11.20612700 12.91184700
C 75.26000000 8.79387300 12.91184700
C 75.26000000 7.08815300 11.20612700
C 75.26000000 7.08815300 8.79387300
C 75.26000000 8.79387300 7.08815300
C 75.26000000 11.20612700 7.08815300
C 75.97000000 13.15176100 10.00000000
C 75.97000000 12.22863200 12.22863200
C 75.97000000 10.00000000 13.15176100
C 75.97000000 7.77136800 12.22863200
N 75.97000000 6.84823900 10.00000000
C 75.97000000 7.77136800 7.77136800
C 75.97000000 10.00000000 6.84823900
C 75.97000000 12.22863200 7.77136800
N 77.39000000 13.15176100 10.00000000
C 77.39000000 12.22863200 12.22863200
C 77.39000000 10.00000000 13.15176100
C 77.39000000 7.77136800 12.22863200
C 77.39000000 6.84823900 10.00000000
C 77.39000000 7.77136800 7.77136800
C 77.39000000 10.00000000 6.84823900
C 77.39000000 12.22863200 7.77136800
C 78.10000000 12.91184700 8.79387300
C 78.10000000 12.91184700 11.20612700
C 78.10000000 11.20612700 12.91184700
C 78.10000000 8.79387300 12.91184700
C 78.10000000 7.08815300 11.20612700
C 78.10000000 7.08815300 8.79387300
C 78.10000000 8.79387300 7.08815300
C 78.10000000 11.20612700 7.08815300
C 79.52000000 12.91184700 8.79387300
C 79.52000000 12.91184700 11.20612700
C 79.52000000 11.20612700 12.91184700
C 79.52000000 8.79387300 12.91184700
C 79.52000000 7.08815300 11.20612700
C 79.52000000 7.08815300 8.79387300
C 79.52000000 8.79387300 7.08815300
C 79.52000000 11.20612700 7.08815300
C 80.23000000 13.15176100 10.00000000
C 80.23000000 12.22863200 12.22863200
C 80.23000000 10.00000000 13.15176100
C 80.23000000 7.77136800 12.22863200
N 80.23000000 6.84823900 10.00000000
C 80.23000000 7.77136800 7.77136800
C 80.23000000 10.00000000 6.84823900
C 80.23000000 12.22863200 7.77136800
N 81.65000000 13.15176100 10.00000000
C 81.65000000 12.22863200 12.22863200
C 81.65000000 10.00000000 13.15176100
C 81.65000000 7.77136800 12.22863200
C 81.65000000 6.84823900 10.00000000
C 81.65000000 7.77136800 7.77136800
C 81.65000000 10.00000000 6.84823900
C 81.65000000 12.22863200 7.77136800
C 82.36000000 12.91184700 8.79387300
C 82.36000000 12.91184700 11.20612700
C 82.36000000 11.20612700 12.91184700
C 82.36000000 8.79387300 12.91184700
C 82.36000000 7.08815300 11.20612700
C 82.36000000 7.08815300 8.79387300
C 82.36000000 8.79387300 7.08815300
C 82.36000000 11.20612700 7.08815300
C 83.78000000 12.91184700 8.79387300
C 83.78000000 12.91184700 11.20612700
C 83.78000000 11.20612700 12.91184700
C 83.78000000 8.79387300 12.91184700
C 83.78000000 7.08815300 11.20612700
C 83.78000000 7.08815300 8.79387300
C 83.78000000 8.79387300 7.08815300
C 83.78000000 11.20612700 7.08815300
C 84.49000000 13.15176100 10.00000000
C 84.49000000 12.22863200 12.22863200
C 84.49000000 10.00000000 13.15176100
C 84.49000000 7.77136800 12.22863200
N 84.49000000 6.84823900 10.00000000
C 84.49000000 7.77136800 7.77136800
C 84.49000000 10.00000000 6.84823900
C 84.49000000 12.22863200 7.77136800
